@<TRIPOS>MOLECULE
H21
   72    76     1     0     0
SMALL
RESP Charge
 
 
@<TRIPOS>ATOM
      1 CHA        29.8680   35.1850  122.4650 ce        1 H21     -0.088279
      2 CHB        26.5810   38.6810  123.0370 ce        1 H21     -0.106242
      3 CHC        26.4290   37.6830  127.7690 ce        1 H21     -0.088598
      4 CHD        29.3020   33.8060  127.1290 ce        1 H21     -0.123119
      5 C1A        29.0350   36.2520  122.2270 cc        1 H21     -0.058549
      6 C2A        28.9520   36.9980  120.9840 cc        1 H21     -0.101601
      7 C3A        28.0480   37.9620  121.1450 cd        1 H21      0.030176
      8 C4A        27.5270   37.8600  122.4870 cd        1 H21     -0.059219
      9 CMA        27.6260   39.0090  120.0920 c3        1 H21     -0.091184
     10 CAA        29.7790   36.7400  119.7030 c3        1 H21     -0.037496
     11 CBA        29.2340   35.5570  118.9100 c3        1 H21     -0.030325
     12 CGA        30.0620   35.3980  117.6540 c         1 H21      0.597449
     13 O1A        30.9960   36.2200  117.4430 o         1 H21     -0.535324
     14 O2A        29.7980   34.4530  116.8630 o         1 H21     -0.507329
     15 C1B        26.3340   38.7850  124.3830 cc        1 H21     -0.066219
     16 C2B        25.6230   39.8640  125.0280 cc        1 H21      0.021571
     17 C3B        25.5750   39.6170  126.3340 cd        1 H21     -0.053772
     18 C4B        26.2500   38.3410  126.5720 cd        1 H21     -0.020844
     19 CMB        25.0330   41.1060  124.3310 c3        1 H21     -0.049177
     20 CAB        24.8790   40.5780  127.3270 cf        1 H21     -0.085344
     21 CBB        25.0790   40.4990  128.6410 c2        1 H21     -0.372478
     22 C1C        27.1460   36.5270  127.9950 cc        1 H21     -0.040243
     23 C2C        27.2140   35.8200  129.2520 cc        1 H21     -0.018380
     24 C3C        28.0100   34.7550  129.1100 cd        1 H21      0.001503
     25 C4C        28.4710   34.7290  127.7290 cd        1 H21     -0.035198
     26 CMC        26.4960   36.2490  130.5510 c3        1 H21     -0.035427
     27 CAC        28.3170   33.7600  130.2580 cf        1 H21     -0.109459
     28 CBC        29.3340   32.8890  130.2160 c2        1 H21     -0.405089
     29 C1D        29.8230   33.8850  125.8540 cc        1 H21     -0.081655
     30 C2D        30.9610   33.1420  125.3580 cc        1 H21      0.041653
     31 C3D        31.1340   33.5790  123.8980 cd        1 H21     -0.088206
     32 C4D        30.0880   34.5430  123.6620 cd        1 H21     -0.041323
     33 CMD        31.8270   32.1300  126.1340 c3        1 H21     -0.057711
     34 CAD        32.2180   33.1180  122.8980 c3        1 H21     -0.113976
     35 CBD        33.2680   34.2320  122.8730 c3        1 H21      0.036364
     36 CGD        34.3860   33.9290  121.8990 c         1 H21      0.594329
     37 O1D        34.5060   32.7730  121.4330 o         1 H21     -0.534895
     38 O2D        35.1740   34.8510  121.5900 o         1 H21     -0.498605
     39 NA         28.1450   36.8050  123.1260 Y2        1 H21      0.043812
     40 NB         26.7010   37.8710  125.3500 Y3        1 H21      0.028615
     41 NC         27.9210   35.8250  127.0850 Y4        1 H21     -0.006506
     42 ND         29.3460   34.6900  124.8270 Y5        1 H21     -0.013604
     43 HMA1       26.7020   39.2640  120.2410 hc        1 H21      0.037887
     44 HMA2       27.7170   38.6300  119.2040 hc        1 H21      0.037887
     45 HMA3       28.1930   39.7920  120.1680 hc        1 H21      0.037887
     46 HMB1       25.5650   41.3220  123.5490 hc        1 H21      0.020747
     47 HMB2       25.0420   41.8570  124.9450 hc        1 H21      0.020747
     48 HMB3       24.1200   40.9220  124.0600 hc        1 H21      0.020747
     49 HMC1       26.4070   37.2150  130.5680 hc        1 H21      0.018684
     50 HMC2       27.0140   35.9590  131.3180 hc        1 H21      0.018684
     51 HMC3       25.6160   35.8430  130.5840 hc        1 H21      0.018684
     52 HMD1       32.1750   31.4640  125.5200 hc        1 H21      0.029485
     53 HMD2       31.2870   31.6940  126.8110 hc        1 H21      0.029485
     54 HMD3       32.5650   32.5940  126.5590 hc        1 H21      0.029485
     55 HBB1       24.6280   41.1160  129.2380 ha        1 H21      0.140257
     56 HBB2       25.6760   39.8240  129.0010 ha        1 H21      0.140257
     57 HBC1       29.4870   32.2850  130.9600 ha        1 H21      0.159272
     58 HBC2       29.9180   32.8620  129.4420 ha        1 H21      0.159272
     59 HBA1       28.3020   35.7040  118.6830 hc        1 H21      0.010100
     60 HBA2       29.2720   34.7480  119.4430 hc        1 H21      0.010100
     61 HAA1       30.7040   36.5710  119.9430 hc        1 H21      0.041859
     62 HAA2       29.7710   37.5340  119.1470 hc        1 H21      0.041859
     63 HBD1       33.6370   34.3490  123.7630 hc        1 H21     -0.006114
     64 HBD2       32.8450   35.0700  122.6290 hc        1 H21     -0.006114
     65 HAD1       31.8400   32.9770  122.0160 hc        1 H21      0.050993
     66 HAD2       32.6110   32.2760  123.1760 hc        1 H21      0.050993
     67 HHA        30.3380   34.8590  121.7320 ha        1 H21      0.140348
     68 HHB        26.0710   39.2030  122.4610 ha        1 H21      0.117783
     69 HHC        26.0180   38.0630  128.5120 ha        1 H21      0.109532
     70 HHD        29.5330   33.0590  127.6320 ha        1 H21      0.103803
     71 HAB        24.2790   41.2580  126.9820 ha        1 H21      0.123703
     72 HAC        27.7470   33.7680  131.0430 ha        1 H21      0.119255
@<TRIPOS>BOND
     1    1    5 1
     2    1   32 1
     3    1   67 1
     4    2    8 1
     5    2   15 1
     6    2   68 1
     7    3   18 1
     8    3   22 1
     9    3   69 1
    10    4   25 1
    11    4   29 1
    12    4   70 1
    13    5    6 1
    14    5   39 1
    15    6    7 1
    16    6   10 1
    17    7    8 1
    18    7    9 1
    19    8   39 1
    20    9   43 1
    21    9   44 1
    22    9   45 1
    23   10   11 1
    24   10   61 1
    25   10   62 1
    26   11   12 1
    27   11   59 1
    28   11   60 1
    29   12   13 1
    30   12   14 1
    31   15   16 1
    32   15   40 1
    33   16   17 1
    34   16   19 1
    35   17   18 1
    36   17   20 1
    37   18   40 1
    38   19   46 1
    39   19   47 1
    40   19   48 1
    41   20   21 1
    42   20   71 1
    43   21   55 1
    44   21   56 1
    45   22   23 1
    46   22   41 1
    47   23   24 1
    48   23   26 1
    49   24   25 1
    50   24   27 1
    51   25   41 1
    52   26   49 1
    53   26   50 1
    54   26   51 1
    55   27   28 1
    56   27   72 1
    57   28   57 1
    58   28   58 1
    59   29   30 1
    60   29   42 1
    61   30   31 1
    62   30   33 1
    63   31   32 1
    64   31   34 1
    65   32   42 1
    66   33   52 1
    67   33   53 1
    68   33   54 1
    69   34   35 1
    70   34   65 1
    71   34   66 1
    72   35   36 1
    73   35   63 1
    74   35   64 1
    75   36   37 1
    76   36   38 1
@<TRIPOS>SUBSTRUCTURE
     1 H21         1 TEMP              0 ****  ****    0 ROOT
