@<TRIPOS>MOLECULE
HD2
   17    17     1     0     0
SMALL
RESP Charge
 
 
@<TRIPOS>ATOM
      1 N          83.4660   25.2660  121.9780 N         1 HD2     -0.415700
      2 CA         84.2860   25.5750  120.8180 XC        1 HD2      0.018800
      3 C          85.7220   25.0180  120.9340 C         1 HD2      0.597300
      4 O          86.4450   24.9890  119.9400 O         1 HD2     -0.567900
      5 CB         84.2930   27.0910  120.5800 CT        1 HD2     -0.131323
      6 CG         83.0060   27.6170  120.0070 CC        1 HD2      0.039455
      7 H          83.2590   25.9410  122.7340 H         1 HD2      0.258480
      8 HA         83.8620   25.1560  119.9990 H1        1 HD2      0.083583
      9 HB2        84.4630   27.5580  121.4530 HC        1 HD2      0.081427
     10 HB3        85.0360   27.3170  119.9430 HC        1 HD2      0.081427
     11 ND1        82.2600   28.5990  120.6220 NA        1 HD2     -0.220665
     12 CD2        82.3310   27.2870  118.8760 CV        1 HD2     -0.119549
     13 CE1        81.1830   28.8530  119.8950 CR        1 HD2     -0.033440
     14 NE2        81.2000   28.0710  118.8280 Y1        1 HD2     -0.113984
     15 HD1        82.4980   29.0500  121.4820 H         1 HD2      0.313951
     16 HD2        82.6030   26.6040  118.2030 H4        1 HD2      0.140863
     17 HE1        80.4760   29.5200  120.1160 H5        1 HD2      0.143444
@<TRIPOS>BOND
     1    1    2 1
     2    1    7 1
     3    2    3 1
     4    2    5 1
     5    2    8 1
     6    3    4 1
     7    5    6 1
     8    5    9 1
     9    5   10 1
    10    6   11 1
    11    6   12 1
    12   11   13 1
    13   11   15 1
    14   12   14 1
    15   12   16 1
    16   13   14 1
    17   13   17 1
@<TRIPOS>SUBSTRUCTURE
     1 HD2         1 TEMP              0 ****  ****    0 ROOT
