@<TRIPOS>MOLECULE
MAA
   31    32     1     0     0
SMALL
resp


@<TRIPOS>ATOM
      1 O1           0.5370    -2.1750    -0.4250 o          1 MAA      -0.580532
      2 N1           0.5100     1.3350    -0.0480 na         1 MAA      -0.405792
      3 N2          -0.1330     0.0910    -0.2920 n          1 MAA      -0.224590
      4 N3           3.3270    -0.9810    -0.1420 nh         1 MAA      -0.683842
      5 C1           1.8840     1.0670     0.0060 cc         1 MAA       0.450041
      6 C2           2.1060    -0.2870    -0.1420 cd         1 MAA      -0.096157
      7 C3           0.8200    -0.9400    -0.3190 c          1 MAA       0.600054
      8 C4          -1.5330    -0.0530    -0.0630 ca         1 MAA       0.332430
      9 C5          -0.0290     2.5020    -0.7770 c3         1 MAA      -0.016974
     10 C6           2.8750     2.1740     0.1550 c3         1 MAA      -0.640341
     11 C7          -2.2890    -0.8680    -0.9210 ca         1 MAA      -0.238725
     12 C8          -2.1460     0.5990     1.0200 ca         1 MAA      -0.238725
     13 C9          -3.6590    -1.0380    -0.6830 ca         1 MAA      -0.113234
     14 C10         -3.5200     0.4390     1.2370 ca         1 MAA      -0.113234
     15 C11         -4.2800    -0.3830     0.3910 ca         1 MAA      -0.197834
     16 H1           0.4990     3.3910    -0.4320 h1         1 MAA       0.076761
     17 H2          -1.0880     2.6170    -0.5480 h1         1 MAA       0.076761
     18 H3           0.1030     2.3890    -1.8610 h1         1 MAA       0.076761
     19 H4           3.0610     2.6950    -0.7930 hc         1 MAA       0.188120
     20 H5           3.8320     1.7740     0.5040 hc         1 MAA       0.188120
     21 H6           2.5350     2.9170     0.8840 hc         1 MAA       0.188120
     22 H7          -1.8080    -1.3590    -1.7580 ha         1 MAA       0.169200
     23 H8          -1.5500     1.2170     1.6820 ha         1 MAA       0.169200
     24 H9           4.1390    -0.4100    -0.3440 hn         1 MAA       0.373811
     25 H10         -4.2410    -1.6720    -1.3440 ha         1 MAA       0.144919
     26 H11         -3.9930     0.9480     2.0710 ha         1 MAA       0.144919
     27 H12         -5.3430    -0.5100     0.5660 ha         1 MAA       0.153679
     28 C12          3.5650    -2.0170     0.8840 c3         1 MAA       0.091279
     29 H13          3.6090    -1.6020     1.9040 h1         1 MAA       0.041935
     30 H14          2.7630    -2.7570     0.8430 h1         1 MAA       0.041935
     31 H15          4.5120    -2.5170     0.6660 h1         1 MAA       0.041935
@<TRIPOS>BOND
     1     1     7 2   
     2     2     3 1   
     3     2     5 1   
     4     2     9 1   
     5     3     7 1   
     6     3     8 1   
     7     4     6 1   
     8     4    24 1   
     9     4    28 1   
    10     5     6 2   
    11     5    10 1   
    12     6     7 1   
    13     8    11 ar  
    14     8    12 ar  
    15     9    16 1   
    16     9    17 1   
    17     9    18 1   
    18    10    19 1   
    19    10    20 1   
    20    10    21 1   
    21    11    13 ar  
    22    11    22 1   
    23    12    14 ar  
    24    12    23 1   
    25    13    15 ar  
    26    13    25 1   
    27    14    15 ar  
    28    14    26 1   
    29    15    27 1   
    30    28    29 1   
    31    28    30 1   
    32    28    31 1   
@<TRIPOS>SUBSTRUCTURE
     1 MAA         1 TEMP              0 ****  ****    0 ROOT
