@<TRIPOS>MOLECULE
MOL
   36    38     1     0     0
SMALL
resp


@<TRIPOS>ATOM
      1 C1          -2.5240    -0.7040     0.0230 ce         1 MOL      -0.172871
      2 C2          -1.4090    -1.4290     0.0230 cf         1 MOL      -0.087874
      3 C3          -1.7810    -2.8910    -0.0040 c3         1 MOL       0.269732
      4 C4          -3.6740    -1.6570    -0.0330 c          1 MOL       0.836614
      5 O1          -3.1850    -2.9040    -0.0360 os         1 MOL      -0.496657
      6 O2          -4.8300    -1.4190    -0.0750 o          1 MOL      -0.568227
      7 C5          -2.7270     0.7610     0.0930 ca         1 MOL       0.063387
      8 C6          -2.0160     1.5350     1.0060 ca         1 MOL      -0.122273
      9 C7          -2.2070     2.9040     1.0680 ca         1 MOL      -0.165962
     10 C8          -3.1140     3.5180     0.2180 ca         1 MOL      -0.107912
     11 C9          -3.8340     2.7540    -0.6860 ca         1 MOL      -0.165962
     12 C10         -3.6490     1.3840    -0.7450 ca         1 MOL      -0.122273
     13 C11          0.0100    -1.0060    -0.0100 ca         1 MOL       0.121230
     14 C12          0.4370    -0.0390    -0.9180 ca         1 MOL      -0.215252
     15 C13          1.7680     0.3260    -0.9790 ca         1 MOL      -0.113320
     16 C14          2.6790    -0.2720    -0.1200 ca         1 MOL      -0.036969
     17 C15          2.2760    -1.2430     0.7810 ca         1 MOL      -0.113320
     18 C16          0.9430    -1.6090     0.8290 ca         1 MOL      -0.215252
     19 S1           4.3870     0.2040    -0.1850 sy         1 MOL       1.096530
     20 O3           4.6560     0.7070    -1.5030 o          1 MOL      -0.587202
     21 O4           5.1650    -0.8730     0.3600 o          1 MOL      -0.587202
     22 C17          4.5070     1.5720     0.9410 c3         1 MOL      -0.512725
     23 H1          -1.4440    -3.4310     0.8730 h1         1 MOL       0.045785
     24 H2          -1.3970    -3.3910    -0.8850 h1         1 MOL       0.045785
     25 H3          -1.3220     1.0630     1.6770 ha         1 MOL       0.136791
     26 H4          -1.6550     3.4880     1.7820 ha         1 MOL       0.145664
     27 H5          -3.2640     4.5810     0.2670 ha         1 MOL       0.136578
     28 H6          -4.5460     3.2230    -1.3410 ha         1 MOL       0.145664
     29 H7          -4.2250     0.7960    -1.4340 ha         1 MOL       0.136791
     30 H8          -0.2710     0.4160    -1.5840 ha         1 MOL       0.177527
     31 H9           2.1030     1.0490    -1.6970 ha         1 MOL       0.165460
     32 H10          2.9970    -1.7180     1.4180 ha         1 MOL       0.165460
     33 H11          0.6330    -2.3630     1.5300 ha         1 MOL       0.177527
     34 H12          3.8670     2.3740     0.6040 h1         1 MOL       0.174909
     35 H13          5.5410     1.8910     0.9270 h1         1 MOL       0.174909
     36 H14          4.2330     1.2470     1.9340 h1         1 MOL       0.174909
@<TRIPOS>BOND
     1     1     2 2   
     2     1     4 1   
     3     1     7 1   
     4     2     3 1   
     5     2    13 1   
     6     3     5 1   
     7     3    23 1   
     8     3    24 1   
     9     4     5 1   
    10     4     6 2   
    11     7     8 ar  
    12     7    12 ar  
    13     8     9 ar  
    14     8    25 1   
    15     9    10 ar  
    16     9    26 1   
    17    10    11 ar  
    18    10    27 1   
    19    11    12 ar  
    20    11    28 1   
    21    12    29 1   
    22    13    14 ar  
    23    13    18 ar  
    24    14    15 ar  
    25    14    30 1   
    26    15    16 ar  
    27    15    31 1   
    28    16    17 ar  
    29    16    19 1   
    30    17    18 ar  
    31    17    32 1   
    32    18    33 1   
    33    19    20 2   
    34    19    21 2   
    35    19    22 1   
    36    22    34 1   
    37    22    35 1   
    38    22    36 1   
@<TRIPOS>SUBSTRUCTURE
     1 MOL         1 TEMP              0 ****  ****    0 ROOT
