@<TRIPOS>MOLECULE
MOL
   36    38     1     0     0
SMALL
resp


@<TRIPOS>ATOM
      1 C1           2.5950    -0.6900     0.0150 cc         1 MOL      -0.093547
      2 C2           1.3950    -1.5210    -0.0230 cc         1 MOL      -0.234041
      3 C3           1.8200    -2.8210    -0.0200 cd         1 MOL      -0.083201
      4 C4           3.6330    -1.5920     0.0460 cd         1 MOL       0.467632
      5 O1           3.1910    -2.8650     0.0270 os         1 MOL      -0.261007
      6 O2           4.9500    -1.3930     0.0680 oh         1 MOL      -0.577758
      7 C5           2.7160     0.7740    -0.0700 ca         1 MOL       0.091759
      8 C6           1.8420     1.5280    -0.8780 ca         1 MOL      -0.144997
      9 C7           1.9640     2.9150    -0.9630 ca         1 MOL      -0.151132
     10 C8           2.9680     3.5820    -0.2520 ca         1 MOL      -0.151796
     11 C9           3.8490     2.8440     0.5450 ca         1 MOL      -0.151132
     12 C10          3.7230     1.4570     0.6380 ca         1 MOL      -0.144997
     13 C11         -0.0110    -1.0900     0.0170 ca         1 MOL       0.261708
     14 C12         -0.4130    -0.0210     0.8420 ca         1 MOL      -0.201996
     15 C13         -1.7480     0.3700     0.9020 ca         1 MOL      -0.163178
     16 C14         -2.6910    -0.3130     0.1290 ca         1 MOL      -0.019665
     17 C15         -2.3250    -1.3840    -0.6880 ca         1 MOL      -0.163178
     18 C16         -0.9850    -1.7640    -0.7440 ca         1 MOL      -0.201996
     19 S1          -4.4070     0.1930     0.1940 sy         1 MOL       1.051664
     20 O3          -4.6420     0.8560     1.4910 o          1 MOL      -0.583800
     21 O4          -5.2410    -0.9620    -0.1890 o          1 MOL      -0.583800
     22 C17         -4.5650     1.4350    -1.0940 c3         1 MOL      -0.595628
     23 H1           1.3050    -3.7760     0.0110 h4         1 MOL       0.193061
     24 H2           5.4150    -2.2380    -0.0400 ho         1 MOL       0.457682
     25 H3           1.0660     1.0190    -1.4520 ha         1 MOL       0.130281
     26 H4           1.2740     3.4800    -1.5960 ha         1 MOL       0.142380
     27 H5           3.0630     4.6680    -0.3210 ha         1 MOL       0.141755
     28 H6           4.6380     3.3540     1.1040 ha         1 MOL       0.142380
     29 H7           4.4090     0.8910     1.2710 ha         1 MOL       0.130281
     30 H8           0.3280     0.4980     1.4500 ha         1 MOL       0.161720
     31 H9          -2.0630     1.1880     1.5510 ha         1 MOL       0.181163
     32 H10         -3.0820    -1.9100    -1.2710 ha         1 MOL       0.181163
     33 H11         -0.6840    -2.5860    -1.3960 ha         1 MOL       0.161720
     34 H12         -5.6160     1.7540    -1.0680 h1         1 MOL       0.203500
     35 H13         -3.8950     2.2720    -0.8620 h1         1 MOL       0.203500
     36 H14         -4.3180     0.9760    -2.0590 h1         1 MOL       0.203500
@<TRIPOS>BOND
     1     1     2 1   
     2     1     4 2   
     3     1     7 1   
     4     2     3 2   
     5     2    13 1   
     6     3     5 1   
     7     3    23 1   
     8     4     5 1   
     9     4     6 1   
    10     6    24 1   
    11     7     8 ar  
    12     7    12 ar  
    13     8     9 ar  
    14     8    25 1   
    15     9    10 ar  
    16     9    26 1   
    17    10    11 ar  
    18    10    27 1   
    19    11    12 ar  
    20    11    28 1   
    21    12    29 1   
    22    13    14 ar  
    23    13    18 ar  
    24    14    15 ar  
    25    14    30 1   
    26    15    16 ar  
    27    15    31 1   
    28    16    17 ar  
    29    16    19 1   
    30    17    18 ar  
    31    17    32 1   
    32    18    33 1   
    33    19    20 2   
    34    19    21 2   
    35    19    22 1   
    36    22    34 1   
    37    22    35 1   
    38    22    36 1   
@<TRIPOS>SUBSTRUCTURE
     1 MOL         1 TEMP              0 ****  ****    0 ROOT
