@<TRIPOS>MOLECULE
MOL
   36    38     1     0     0
SMALL
resp


@<TRIPOS>ATOM
      1 C1          -2.6090    -0.7700     0.0160 ce         1 MOL      -0.243981
      2 C2          -1.3750    -1.5140    -0.0730 cf         1 MOL      -0.028125
      3 C3          -1.7510    -2.8660    -0.1170 c3         1 MOL       0.462386
      4 C4          -3.6190    -1.7500     0.0100 c          1 MOL       0.737306
      5 O1          -3.0700    -2.9550    -0.0690 os         1 MOL      -0.491265
      6 O2          -4.9960    -1.5010     0.0690 o          1 MOL      -0.603332
      7 C5          -2.8250     0.7680     0.0940 ca         1 MOL       0.062255
      8 C6          -2.0940     1.5510     0.9850 ca         1 MOL      -0.120501
      9 C7          -2.3110     2.9400     1.0470 ca         1 MOL      -0.188394
     10 C8          -3.2620     3.5410     0.2240 ca         1 MOL      -0.110684
     11 C9          -3.9970     2.7570    -0.6640 ca         1 MOL      -0.188394
     12 C10         -3.7770     1.3720    -0.7260 ca         1 MOL      -0.120501
     13 C11          0.0510    -1.0200    -0.0980 ca         1 MOL       0.146326
     14 C12          0.4430     0.0930    -0.8360 ca         1 MOL      -0.269710
     15 C13          1.7780     0.4860    -0.8220 ca         1 MOL      -0.057174
     16 C14          2.7050    -0.2290    -0.0810 ca         1 MOL      -0.068419
     17 C15          2.3040    -1.3420     0.6470 ca         1 MOL      -0.057174
     18 C16          0.9790    -1.7370     0.6290 ca         1 MOL      -0.269710
     19 S1           4.4190     0.2380    -0.0360 sy         1 MOL       0.960205
     20 O3           5.1510    -0.3870    -1.2000 o          1 MOL      -0.566634
     21 O4           5.0270    -0.2290     1.2740 o          1 MOL      -0.566634
     22 C17          4.5860     2.0050    -0.1730 c3         1 MOL      -0.594035
     23 H1          -1.3280    -3.3820     0.7190 h1         1 MOL       0.007024
     24 H2          -1.3960    -3.3080    -1.0250 h1         1 MOL       0.007024
     25 H3          -1.3910     1.1110     1.6010 ha         1 MOL       0.152733
     26 H4          -1.7640     3.5160     1.7060 ha         1 MOL       0.159606
     27 H5          -3.4210     4.5590     0.2710 ha         1 MOL       0.147758
     28 H6          -4.7020     3.1970    -1.2760 ha         1 MOL       0.159606
     29 H7          -4.3250     0.7960    -1.3860 ha         1 MOL       0.152733
     30 H8          -0.2500     0.6230    -1.3870 ha         1 MOL       0.194749
     31 H9           2.0780     1.3120    -1.3650 ha         1 MOL       0.174575
     32 H10          2.9950    -1.8730     1.2010 ha         1 MOL       0.174575
     33 H11          0.6840    -2.5700     1.1610 ha         1 MOL       0.194749
     34 H12          4.1580     2.3340    -1.0980 h1         1 MOL       0.217019
     35 H13          5.6230     2.2680    -0.1480 h1         1 MOL       0.217019
     36 H14          4.0780     2.4760     0.6420 h1         1 MOL       0.217019
@<TRIPOS>BOND
     1     1     2 2   
     2     1     4 1   
     3     1     7 1   
     4     2     3 1   
     5     2    13 1   
     6     3     5 1   
     7     3    23 1   
     8     3    24 1   
     9     4     5 1   
    10     4     6 2   
    11     7     8 ar  
    12     7    12 ar  
    13     8     9 ar  
    14     8    25 1   
    15     9    10 ar  
    16     9    26 1   
    17    10    11 ar  
    18    10    27 1   
    19    11    12 ar  
    20    11    28 1   
    21    12    29 1   
    22    13    14 ar  
    23    13    18 ar  
    24    14    15 ar  
    25    14    30 1   
    26    15    16 ar  
    27    15    31 1   
    28    16    17 ar  
    29    16    19 1   
    30    17    18 ar  
    31    17    32 1   
    32    18    33 1   
    33    19    20 2   
    34    19    21 2   
    35    19    22 1   
    36    22    34 1   
    37    22    35 1   
    38    22    36 1   
@<TRIPOS>SUBSTRUCTURE
     1 MOL         1 TEMP              0 ****  ****    0 ROOT
