@<TRIPOS>MOLECULE
MOL
54 53 1 0 0
SMALL
resp


@<TRIPOS>ATOM
      1 C1         34.5345   27.8667  135.9715 c         1 MOL    0.8930
      2 C2         33.0596   27.5489  136.0532 c3        1 MOL   -0.5505
      3 C3         32.6183   26.4358  135.0709 c3        1 MOL    0.1814
      4 C4         31.1126   26.1102  135.2204 c3        1 MOL    0.1539
      5 C5         30.6564   25.0711  134.2271 c2        1 MOL   -0.3804
      6 C6         30.1028   23.8734  134.4789 c2        1 MOL   -0.2628
      7 C7         29.7893   23.2574  135.8285 c3        1 MOL    0.3477
      8 C8         30.4104   21.8832  135.9763 c2        1 MOL   -0.2826
      9 C9         31.2500   21.4542  136.9330 c2        1 MOL   -0.2958
     10 C10        31.7807   22.2291  138.1232 c3        1 MOL    0.2134
     11 C11        31.2812   21.6528  139.4336 c2        1 MOL   -0.3239
     12 C12        32.0042   21.0877  140.4153 c2        1 MOL   -0.2644
     13 C13        33.5069   20.8994  140.4785 c3        1 MOL    0.3034
     14 C14        34.1226   21.6834  141.6231 c2        1 MOL   -0.3108
     15 C15        34.7551   21.1976  142.7064 c2        1 MOL   -0.2962
     16 C16        35.0411   19.7579  143.0542 c3        1 MOL    0.1429
     17 C17        36.5589   19.4674  143.1528 c3        1 MOL   -0.0739
     18 C18        36.8965   18.0555  143.6733 c3        1 MOL   -0.1008
     19 C19        36.4298   16.8855  142.7786 c3        1 MOL    0.2062
     20 C20        37.0827   16.8618  141.3852 c3        1 MOL   -0.1139
     21 O1         35.3500   27.7019  136.8834 o         1 MOL   -0.5671
     22 O2         34.9955   28.3695  134.7697 oh        1 MOL   -0.6876
     23 H1         32.4847   28.4625  135.8539 hc        1 MOL    0.1343
     24 H2         32.8513   27.2445  137.0824 hc        1 MOL    0.1343
     25 H3         33.2069   25.5289  135.2543 hc        1 MOL   -0.0131
     26 H4         32.8182   26.7401  134.0346 hc        1 MOL   -0.0131
     27 H5         30.5412   27.0384  135.0662 hc        1 MOL    0.0134
     28 H6         30.9163   25.7913  136.2502 hc        1 MOL    0.0134
     29 H7         30.8071   25.3486  133.1812 ha        1 MOL    0.1666
     30 H8         29.8364   23.2468  133.6266 ha        1 MOL    0.1513
     31 H9         30.0960   23.9177  136.6439 hc        1 MOL   -0.0206
     32 H10        28.6933   23.1529  135.9147 hc        1 MOL   -0.0206
     33 H11        30.1323   21.1769  135.1920 ha        1 MOL    0.1369
     34 H12        31.5944   20.4215  136.8833 ha        1 MOL    0.1562
     35 H13        31.4791   23.2828  138.0587 hc        1 MOL    0.0454
     36 H14        32.8781   22.2186  138.0950 hc        1 MOL    0.0454
     37 H15        30.1993   21.7024  139.5592 ha        1 MOL    0.1551
     38 H16        31.4724   20.7254  141.2961 ha        1 MOL    0.1461
     39 H17        33.7293   19.8307  140.5859 hc        1 MOL   -0.0027
     40 H18        33.9714   21.2189  139.5370 hc        1 MOL   -0.0027
     41 H19        34.0085   22.7641  141.5368 ha        1 MOL    0.1518
     42 H20        35.1327   21.9199  143.4342 ha        1 MOL    0.1513
     43 H21        34.5837   19.5257  144.0305 hc        1 MOL    0.0181
     44 H22        34.5793   19.0796  142.3284 hc        1 MOL    0.0181
     45 H23        37.0196   19.6315  142.1698 hc        1 MOL    0.0322
     46 H24        37.0149   20.2066  143.8295 hc        1 MOL    0.0322
     47 H25        37.9859   17.9807  143.8056 hc        1 MOL    0.0175
     48 H26        36.4541   17.9340  144.6727 hc        1 MOL    0.0175
     49 H27        36.6608   15.9434  143.2964 hc        1 MOL   -0.0541
     50 H28        35.3362   16.9110  142.6707 hc        1 MOL   -0.0541
     51 H29        38.1772   16.8339  141.4656 hc        1 MOL    0.0198
     52 H30        36.8146   17.7472  140.7960 hc        1 MOL    0.0198
     53 H31        36.7663   15.9787  140.8168 hc        1 MOL    0.0198
     54 H32        34.2963   28.5018  134.0983 ho        1 MOL    0.4536
@<TRIPOS>BOND
     1    1    2 1
     2    1   21 2
     3    1   22 1
     4    2    3 1
     5    2   23 1
     6    2   24 1
     7    3    4 1
     8    3   25 1
     9    3   26 1
    10    4    5 1
    11    4   27 1
    12    4   28 1
    13    5    6 1
    14    5   29 1
    15    6    7 1
    16    6   30 1
    17    7    8 1
    18    7   31 1
    19    7   32 1
    20    8    9 1
    21    8   33 1
    22    9   10 1
    23    9   34 1
    24   10   11 1
    25   10   35 1
    26   10   36 1
    27   11   12 1
    28   11   37 1
    29   12   13 1
    30   12   38 1
    31   13   14 1
    32   13   39 1
    33   13   40 1
    34   14   15 1
    35   14   41 1
    36   15   16 1
    37   15   42 1
    38   16   17 1
    39   16   43 1
    40   16   44 1
    41   17   18 1
    42   17   45 1
    43   17   46 1
    44   18   19 1
    45   18   47 1
    46   18   48 1
    47   19   20 1
    48   19   49 1
    49   19   50 1
    50   20   51 1
    51   20   52 1
    52   20   53 1
    53   22   54 1
@<TRIPOS>SUBSTRUCTURE
     1 MOL     1 RESIDUE           4 A     MOL     0 ROOT
