@<TRIPOS>MOLECULE
MOL
   54    53     1     0     0
SMALL
resp


@<TRIPOS>ATOM
      1 C1           73.461  11.876 132.111 c          1 MOL       0.892963
      2 C2           74.522  12.932 132.316 c3         1 MOL      -0.550458
      3 C3           75.601  12.939 131.205 c3         1 MOL       0.181355
      4 C4           76.640  14.064 131.429 c3         1 MOL       0.153854
      5 C5           77.731  14.043 130.388 c2         1 MOL      -0.380401
      6 C6           78.074  15.018 129.530 c2         1 MOL      -0.262802
      7 C7           77.455  16.395 129.389 c3         1 MOL       0.347736
      8 C8           77.016  16.670 127.965 c2         1 MOL      -0.282554
      9 C9           75.793  17.014 127.529 c2         1 MOL      -0.295751
     10 C10          74.538  17.233 128.351 c3         1 MOL       0.213363
     11 C11          74.079  18.677 128.297 c2         1 MOL      -0.323938
     12 C12          72.937  19.161 127.780 c2         1 MOL      -0.264394
     13 C13          71.802  18.389 127.137 c3         1 MOL       0.303378
     14 C14          70.514  18.522 127.929 c2         1 MOL      -0.310831
     15 C15          69.364  19.100 127.538 c2         1 MOL      -0.296244
     16 C16          69.044  19.740 126.210 c3         1 MOL       0.142899
     17 C17          67.883  19.024 125.477 c3         1 MOL      -0.073856
     18 C18          67.407  19.744 124.199 c3         1 MOL      -0.100836
     19 C19          68.451  19.850 123.065 c3         1 MOL       0.206216
     20 C20          68.904  18.492 122.500 c3         1 MOL      -0.113850
     21 O1           72.263  12.099 131.914 o          1 MOL      -0.567138
     22 O2           73.882  10.560 132.136 oh         1 MOL      -0.687624
     23 H1           75.001  12.774 133.291 hc         1 MOL       0.134297
     24 H2           74.013  13.899 132.350 hc         1 MOL       0.134297
     25 H3           75.122  13.075 130.228 hc         1 MOL      -0.013117
     26 H4           76.121  11.972 131.172 hc         1 MOL      -0.013117
     27 H5           77.085  13.930 132.427 hc         1 MOL       0.013369
     28 H6           76.123  15.030 131.446 hc         1 MOL       0.013369
     29 H7           78.296  13.109 130.344 ha         1 MOL       0.166567
     30 H8           78.895  14.822 128.839 ha         1 MOL       0.151287
     31 H9           76.626  16.528 130.089 hc         1 MOL      -0.020564
     32 H10          78.215  17.146 129.668 hc         1 MOL      -0.020564
     33 H11          77.807  16.560 127.221 ha         1 MOL       0.136877
     34 H12          75.661  17.180 126.460 ha         1 MOL       0.156183
     35 H13          74.713  16.953 129.398 hc         1 MOL       0.045350
     36 H14          73.748  16.567 127.980 hc         1 MOL       0.045350
     37 H15          74.789  19.387 128.722 ha         1 MOL       0.155056
     38 H16          72.771  20.238 127.830 ha         1 MOL       0.146117
     39 H17          71.658  18.752 126.112 hc         1 MOL      -0.002654
     40 H18          72.062  17.326 127.055 hc         1 MOL      -0.002654
     41 H19          70.563  18.105 128.935 ha         1 MOL       0.151807
     42 H20          68.536  19.105 128.251 ha         1 MOL       0.151330
     43 H21          68.748  20.789 126.378 hc         1 MOL       0.018105
     44 H22          69.929  19.769 125.565 hc         1 MOL       0.018105
     45 H23          68.187  17.995 125.244 hc         1 MOL       0.032188
     46 H24          67.030  18.940 126.168 hc         1 MOL       0.032188
     47 H25          66.521  19.221 123.810 hc         1 MOL       0.017507
     48 H26          67.075  20.757 124.469 hc         1 MOL       0.017507
     49 H27          68.015  20.447 122.251 hc         1 MOL      -0.054111
     50 H28          69.328  20.412 123.416 hc         1 MOL      -0.054111
     51 H29          68.045  17.911 122.140 hc         1 MOL       0.019767
     52 H30          69.420  17.889 123.257 hc         1 MOL       0.019767
     53 H31          69.594  18.626 121.658 hc         1 MOL       0.019767
     54 H32          74.836  10.450 132.323 ho         1 MOL       0.453647
@<TRIPOS>BOND
     1     1     2 1   
     2     1    21 2   
     3     1    22 1   
     4     2     3 1   
     5     2    23 1   
     6     2    24 1   
     7     3     4 1   
     8     3    25 1   
     9     3    26 1   
    10     4     5 1   
    11     4    27 1   
    12     4    28 1   
    13     5     6 2   
    14     5    29 1   
    15     6     7 1   
    16     6    30 1   
    17     7     8 1   
    18     7    31 1   
    19     7    32 1   
    20     8     9 2   
    21     8    33 1   
    22     9    10 1   
    23     9    34 1   
    24    10    11 1   
    25    10    35 1   
    26    10    36 1   
    27    11    12 2   
    28    11    37 1   
    29    12    13 1   
    30    12    38 1   
    31    13    14 1   
    32    13    39 1   
    33    13    40 1   
    34    14    15 2   
    35    14    41 1   
    36    15    16 1   
    37    15    42 1   
    38    16    17 1   
    39    16    43 1   
    40    16    44 1   
    41    17    18 1   
    42    17    45 1   
    43    17    46 1   
    44    18    19 1   
    45    18    47 1   
    46    18    48 1   
    47    19    20 1   
    48    19    49 1   
    49    19    50 1   
    50    20    51 1   
    51    20    52 1   
    52    20    53 1   
    53    22    54 1   
@<TRIPOS>SUBSTRUCTURE
     1 MOL         1 TEMP              0 ****  ****    0 ROOT
