@<TRIPOS>MOLECULE
HH1
    3     2     1     0     0
SMALL
RESP Charge
 
 
@<TRIPOS>ATOM
      1 O          29.6410   37.5880  125.3870 Y6        1 HH1     -0.684188
      2 H1         30.6110   37.5880  125.3870 ho        1 HH1      0.406402
      3 H2         29.3180   37.3850  126.2790 ho        1 HH1      0.383215
@<TRIPOS>BOND
     1    1    2 1
     2    1    3 1
@<TRIPOS>SUBSTRUCTURE
     1 HH1         1 TEMP              0 ****  ****    0 ROOT
