@<TRIPOS>MOLECULE
HOH
    3     2     1     0     0
SMALL
RESP Charge
 
 
@<TRIPOS>ATOM
      1 O          78.0400   27.6130  116.1640 Y6        1 HOH     -0.684188
      2 H1         77.0710   27.6390  116.1400 ho        1 HOH      0.406402
      3 H2         78.3350   26.7060  116.3410 ho        1 HOH      0.383215
@<TRIPOS>BOND
     1    1    2 1
     2    1    3 1
@<TRIPOS>SUBSTRUCTURE
     1 HOH         1 TEMP              0 ****  ****    0 ROOT
