@<TRIPOS>MOLECULE
MOL
20 20 1 0 0
SMALL
resp


@<TRIPOS>ATOM
      1 C1         68.6264   59.6705   58.9041 ca        1 MOL   -0.2864
      2 C2         68.6028   60.3744   60.1088 ca        1 MOL   -0.2725
      3 C3         69.5663   60.1123   61.0905 ca        1 MOL    0.3418
      4 C4         70.5565   59.1472   60.8656 ca        1 MOL   -0.2725
      5 C5         70.5898   58.4634   59.6480 ca        1 MOL   -0.2864
      6 C6         69.6319   58.7212   58.6565 ca        1 MOL    0.4257
      7 H1         67.8547   59.8513   58.1655 ha        1 MOL    0.1899
      8 H2         67.8345   61.1138   60.3059 ha        1 MOL    0.1966
      9 H3         71.3009   58.9356   61.6271 ha        1 MOL    0.1966
     10 H4         71.3670   57.7284   59.4646 ha        1 MOL    0.1899
     11 O1         69.4789   60.8424   62.2719 oh        1 MOL   -0.5495
     12 H5         70.1853   60.6061   62.9042 ho        1 MOL    0.3843
     13 N1         69.6741   57.9702   57.4398 n         1 MOL   -0.7764
     14 H6         69.7903   56.9664   57.5262 hn        1 MOL    0.3823
     15 C7         69.6327   58.4117   56.1396 c         1 MOL    0.8405
     16 O2         70.0854   59.5521   55.8538 o         1 MOL   -0.6536
     17 C8         69.0316   57.5145   55.0810 c3        1 MOL   -0.4665
     18 H7         69.7985   56.8594   54.6512 hc        1 MOL    0.1387
     19 H8         68.2284   56.8859   55.4682 hc        1 MOL    0.1387
     20 H9         68.6500   58.1491   54.2796 hc        1 MOL    0.1387
@<TRIPOS>BOND
     1    1    2 ar
     2    1    6 ar
     3    1    7 1
     4    2    3 ar
     5    2    8 1
     6    3    4 ar
     7    3   11 1
     8    4    5 ar
     9    4    9 1
    10    5    6 ar
    11    5   10 1
    12    6   13 1
    13   11   12 1
    14   13   14 1
    15   13   15 am
    16   15   16 2
    17   15   17 1
    18   17   18 1
    19   17   19 1
    20   17   20 1
@<TRIPOS>SUBSTRUCTURE
     1 MOL     1 RESIDUE           4 A     MOL     0 ROOT
