@<TRIPOS>MOLECULE
MOL
20 20 1 0 0
SMALL
resp


@<TRIPOS>ATOM
      1 C1         31.3680   30.6524  117.6220 ca        1 MOL   -0.2864
      2 C2         30.2849   31.4552  117.2619 ca        1 MOL   -0.2725
      3 C3         30.2331   32.7894  117.6835 ca        1 MOL    0.3418
      4 C4         31.2676   33.3222  118.4636 ca        1 MOL   -0.2725
      5 C5         32.3611   32.5208  118.8002 ca        1 MOL   -0.2864
      6 C6         32.4247   31.1843  118.3796 ca        1 MOL    0.4257
      7 H1         31.3820   29.6106  117.3247 ha        1 MOL    0.1899
      8 H2         29.4681   31.0550  116.6716 ha        1 MOL    0.1966
      9 H3         31.2277   34.3541  118.7989 ha        1 MOL    0.1966
     10 H4         33.1723   32.9369  119.3890 ha        1 MOL    0.1899
     11 O1         29.1205   33.5308  117.2979 oh        1 MOL   -0.5495
     12 H5         29.1582   34.4501  117.6267 ho        1 MOL    0.3843
     13 N1         33.5405   30.3839  118.7801 n         1 MOL   -0.7764
     14 H6         33.8088   30.4302  119.7571 hn        1 MOL    0.3823
     15 C7         34.3574   29.5825  118.0202 c         1 MOL    0.8405
     16 O2         34.5566   29.8656  116.8089 o         1 MOL   -0.6536
     17 C8         34.9920   28.3681  118.6603 c3        1 MOL   -0.4665
     18 H7         35.9574   28.6301  119.1090 hc        1 MOL    0.1387
     19 H8         34.3667   27.9266  119.4376 hc        1 MOL    0.1387
     20 H9         35.1791   27.6336  117.8754 hc        1 MOL    0.1387
@<TRIPOS>BOND
     1    1    2 ar
     2    1    6 ar
     3    1    7 1
     4    2    3 ar
     5    2    8 1
     6    3    4 ar
     7    3   11 1
     8    4    5 ar
     9    4    9 1
    10    5    6 ar
    11    5   10 1
    12    6   13 1
    13   11   12 1
    14   13   14 1
    15   13   15 am
    16   15   16 2
    17   15   17 1
    18   17   18 1
    19   17   19 1
    20   17   20 1
@<TRIPOS>SUBSTRUCTURE
     1 MOL     1 RESIDUE           4 A     MOL     0 ROOT
