@<TRIPOS>MOLECULE
HD1
   17    17     1     0     0
SMALL
RESP Charge
 
 
@<TRIPOS>ATOM
      1 N          24.0170   31.8300  127.3780 N         1 HD1     -0.415700
      2 CA         23.2330   33.0210  127.0910 XC        1 HD1      0.018800
      3 C          21.7800   32.9200  127.6060 C         1 HD1      0.597300
      4 O          21.0810   33.9300  127.6530 O         1 HD1     -0.567900
      5 CB         23.2720   33.3130  125.5850 CT        1 HD1     -0.131323
      6 CG         24.5860   33.8720  125.1140 CC        1 HD1      0.039455
      7 H          24.2230   31.0940  126.6810 H         1 HD1      0.258480
      8 HA         23.6650   33.8130  127.5500 H1        1 HD1      0.083583
      9 HB2        23.0940   32.4620  125.0820 HC        1 HD1      0.081427
     10 HB3        22.5510   33.9760  125.3630 HC        1 HD1      0.081427
     11 ND1        25.3430   33.2750  124.1290 NA        1 HD1     -0.220665
     12 CD2        25.2790   34.9740  125.5020 CV        1 HD1     -0.119549
     13 CE1        26.4440   33.9830  123.9300 CR        1 HD1     -0.033440
     14 NE2        26.4320   35.0220  124.7500 Y1        1 HD1     -0.113984
     15 HD1        25.0970   32.4380  123.6410 H         1 HD1      0.313951
     16 HD2        25.0050   35.6280  126.2020 H4        1 HD1      0.140863
     17 HE1        27.1630   33.7690  123.2740 H5        1 HD1      0.143444
@<TRIPOS>BOND
     1    1    2 1
     2    1    7 1
     3    2    3 1
     4    2    5 1
     5    2    8 1
     6    3    4 1
     7    5    6 1
     8    5    9 1
     9    5   10 1
    10    6   11 1
    11    6   12 1
    12   11   13 1
    13   11   15 1
    14   12   14 1
    15   12   16 1
    16   13   14 1
    17   13   17 1
@<TRIPOS>SUBSTRUCTURE
     1 HD1         1 TEMP              0 ****  ****    0 ROOT
