@<TRIPOS>MOLECULE
HEM
   72    76     1     0     0
SMALL
RESP Charge
 
 
@<TRIPOS>ATOM
      1 CHA        77.8290   30.4510  118.6660 ce        1 HEM     -0.088279
      2 CHB        81.1860   29.9180  115.2310 ce        1 HEM     -0.106242
      3 CHC        81.1910   25.1510  116.0580 ce        1 HEM     -0.088598
      4 CHD        78.2400   25.7270  119.8860 ce        1 HEM     -0.123119
      5 C1A        78.6940   30.7050  117.6290 cc        1 HEM     -0.058549
      6 C2A        78.8270   31.9720  116.9310 cc        1 HEM     -0.101601
      7 C3A        79.7510   31.8220  115.9840 cd        1 HEM      0.030176
      8 C4A        80.2340   30.4630  116.0490 cd        1 HEM     -0.059219
      9 CMA        80.2260   32.9000  114.9870 c3        1 HEM     -0.091184
     10 CAA        78.0280   33.2640  117.2160 c3        1 HEM     -0.037496
     11 CBA        78.5630   33.9990  118.4400 c3        1 HEM     -0.030325
     12 CGA        77.7640   35.2700  118.6250 c         1 HEM      0.597449
     13 O1A        76.8570   35.5360  117.7900 o         1 HEM     -0.535324
     14 O2A        78.0250   36.0190  119.6050 o         1 HEM     -0.507329
     15 C1B        81.4010   28.5710  115.0840 cc        1 HEM     -0.066219
     16 C2B        82.1220   27.9460  113.9990 cc        1 HEM      0.021571
     17 C3B        82.1300   26.6320  114.1990 cd        1 HEM     -0.053772
     18 C4B        81.4170   26.3660  115.4490 cd        1 HEM     -0.020844
     19 CMB        82.7600   28.6720  112.7980 c3        1 HEM     -0.049177
     20 CAB        82.8240   25.6560  113.2200 cf        1 HEM     -0.085344
     21 CBB        82.5880   24.3450  113.2450 c2        1 HEM     -0.372478
     22 C1C        80.4400   24.9030  117.1880 cc        1 HEM     -0.040243
     23 C2C        80.3220   23.6230  117.8460 cc        1 HEM     -0.018380
     24 C3C        79.5040   23.7480  118.8960 cd        1 HEM      0.001503
     25 C4C        79.0780   25.1390  118.9620 cd        1 HEM     -0.035198
     26 CMC        81.0170   22.3220  117.3870 c3        1 HEM     -0.035427
     27 CAC        79.1420   22.5730  119.8410 cf        1 HEM     -0.109459
     28 CBC        78.1050   22.6110  120.6880 c2        1 HEM     -0.405089
     29 C1D        77.7540   27.0170  119.8420 cc        1 HEM     -0.081655
     30 C2D        76.6110   27.5170  120.5750 cc        1 HEM      0.041653
     31 C3D        76.4860   28.9950  120.1880 cd        1 HEM     -0.088206
     32 C4D        77.5620   29.2380  119.2580 cd        1 HEM     -0.041323
     33 CMD        75.7000   26.7280  121.5360 c3        1 HEM     -0.057711
     34 CAD        75.4170   30.0070  120.6590 c3        1 HEM     -0.113976
     35 CBD        74.3970   30.1000  119.5220 c3        1 HEM      0.036364
     36 CGD        73.2970   31.0920  119.8330 c         1 HEM      0.594329
     37 O1D        73.1600   31.5190  121.0020 o         1 HEM     -0.534895
     38 O2D        72.5400   31.4550  118.9050 o         1 HEM     -0.498605
     39 NA         79.5740   29.8030  117.0650 Y2        1 HEM      0.043812
     40 NB         80.9860   27.5820  115.9530 Y3        1 HEM      0.028615
     41 NC         79.6710   25.8070  117.9040 Y4        1 HEM     -0.006506
     42 ND         78.2770   28.0600  119.0870 Y5        1 HEM     -0.013604
     43 HMA1       81.1520   32.7360  114.7490 hc        1 HEM      0.037887
     44 HMA2       80.1480   33.7760  115.3960 hc        1 HEM      0.037887
     45 HMA3       79.6770   32.8670  114.1880 hc        1 HEM      0.037887
     46 HMB1       82.2540   29.4750  112.5990 hc        1 HEM      0.020747
     47 HMB2       82.7540   28.0860  112.0250 hc        1 HEM      0.020747
     48 HMB3       83.6750   28.9120  113.0140 hc        1 HEM      0.020747
     49 HMC1       81.1290   22.3370  116.4240 hc        1 HEM      0.018684
     50 HMC2       80.4720   21.5590  117.6360 hc        1 HEM      0.018684
     51 HMC3       81.8850   22.2510  117.8130 hc        1 HEM      0.018684
     52 HMD1       75.3520   27.3260  122.2160 hc        1 HEM      0.029485
     53 HMD2       76.2110   26.0210  121.9600 hc        1 HEM      0.029485
     54 HMD3       74.9630   26.3400  121.0400 hc        1 HEM      0.029485
     55 HBB1       83.0390   23.7590  112.6180 ha        1 HEM      0.140257
     56 HBB2       81.9650   23.9770  113.8920 ha        1 HEM      0.140257
     57 HBC1       77.9180   21.8500  121.2610 ha        1 HEM      0.159272
     58 HBC2       77.5410   23.3990  120.7300 ha        1 HEM      0.159272
     59 HBA1       79.5040   34.2060  118.3240 hc        1 HEM      0.010100
     60 HBA2       78.4910   33.4380  119.2280 hc        1 HEM      0.010100
     61 HAA1       77.0930   33.0430  117.3540 hc        1 HEM      0.041859
     62 HAA2       78.0700   33.8480  116.4440 hc        1 HEM      0.041859
     63 HBD1       74.0080   29.2250  119.3630 hc        1 HEM     -0.006114
     64 HBD2       74.8460   30.3630  118.7040 hc        1 HEM     -0.006114
     65 HAD1       75.8140   30.8730  120.8410 hc        1 HEM      0.050993
     66 HAD2       74.9960   29.7090  121.4800 hc        1 HEM      0.050993
     67 HHA        77.3700   31.1840  119.0080 ha        1 HEM      0.140348
     68 HHB        81.7240   30.4990  114.7430 ha        1 HEM      0.117783
     69 HHC        81.5920   24.4110  115.6610 ha        1 HEM      0.109532
     70 HHD        77.9770   25.2040  120.6080 ha        1 HEM      0.103803
     71 HAB        83.4490   26.0090  112.5670 ha        1 HEM      0.123703
     72 HAC        79.6920   21.7740  119.8180 ha        1 HEM      0.119255
@<TRIPOS>BOND
     1    1    5 1
     2    1   32 1
     3    1   67 1
     4    2    8 1
     5    2   15 1
     6    2   68 1
     7    3   18 1
     8    3   22 1
     9    3   69 1
    10    4   25 1
    11    4   29 1
    12    4   70 1
    13    5    6 1
    14    5   39 1
    15    6    7 1
    16    6   10 1
    17    7    8 1
    18    7    9 1
    19    8   39 1
    20    9   43 1
    21    9   44 1
    22    9   45 1
    23   10   11 1
    24   10   61 1
    25   10   62 1
    26   11   12 1
    27   11   59 1
    28   11   60 1
    29   12   13 1
    30   12   14 1
    31   15   16 1
    32   15   40 1
    33   16   17 1
    34   16   19 1
    35   17   18 1
    36   17   20 1
    37   18   40 1
    38   19   46 1
    39   19   47 1
    40   19   48 1
    41   20   21 1
    42   20   71 1
    43   21   55 1
    44   21   56 1
    45   22   23 1
    46   22   41 1
    47   23   24 1
    48   23   26 1
    49   24   25 1
    50   24   27 1
    51   25   41 1
    52   26   49 1
    53   26   50 1
    54   26   51 1
    55   27   28 1
    56   27   72 1
    57   28   57 1
    58   28   58 1
    59   29   30 1
    60   29   42 1
    61   30   31 1
    62   30   33 1
    63   31   32 1
    64   31   34 1
    65   32   42 1
    66   33   52 1
    67   33   53 1
    68   33   54 1
    69   34   35 1
    70   34   65 1
    71   34   66 1
    72   35   36 1
    73   35   63 1
    74   35   64 1
    75   36   37 1
    76   36   38 1
@<TRIPOS>SUBSTRUCTURE
     1 HEM         1 TEMP              0 ****  ****    0 ROOT
