@<TRIPOS>MOLECULE
MOL
   20    20     1     0     0
SMALL
resp


@<TRIPOS>ATOM
      1 C1         28.5985   41.5338  125.0013 ca        1 MOL   -0.2864
      2 C2         27.5500   42.3866  124.6538 ca        1 MOL   -0.2725
      3 C3         27.1000   42.4371  123.3288 ca        1 MOL    0.3418
      4 C4         27.6974   41.6313  122.3508 ca        1 MOL   -0.2725
      5 C5         28.7300   40.7617  122.7096 ca        1 MOL   -0.2864
      6 C6         29.1854   40.7003  124.0347 ca        1 MOL    0.4257
      7 H1         28.9667   41.5288  126.0202 ha        1 MOL    0.1899
      8 H2         27.0863   43.0284  125.3946 ha        1 MOL    0.1966
      9 H3         27.3565   41.6729  121.3207 ha        1 MOL    0.1966
     10 H4         29.1819   40.1232  121.9572 ha        1 MOL    0.1899
     11 O1         26.0582   43.3161  123.0488 oh        1 MOL   -0.5495
     12 H5         25.7990   43.2922  122.1070 ho        1 MOL    0.3843
     13 N1         30.2732   39.8282  124.3542 n         1 MOL   -0.7764
     14 H6         31.0764   39.8536  123.7354 hn        1 MOL    0.3823
     15 C7         30.3820   38.9016  125.3626 c         1 MOL    0.8405
     16 O2         29.3470   38.3326  125.8006 o         1 MOL   -0.6536
     17 C8         31.7497   38.5953  125.9305 c3        1 MOL   -0.4665
     18 H7         32.2263   37.7831  125.3688 hc        1 MOL    0.1387
     19 H8         32.4173   39.4579  125.9094 hc        1 MOL    0.1387
     20 H9         31.6184   38.2551  126.9588 hc        1 MOL    0.1387
@<TRIPOS>BOND
     1     1     2 ar  
     2     1     6 ar  
     3     1     7 1   
     4     2     3 ar  
     5     2     8 1   
     6     3     4 ar  
     7     3    11 1   
     8     4     5 ar  
     9     4     9 1   
    10     5     6 ar  
    11     5    10 1   
    12     6    13 1   
    13    11    12 1   
    14    13    14 1   
    15    13    15 1   
    16    15    16 2   
    17    15    17 1   
    18    17    18 1   
    19    17    19 1   
    20    17    20 1   
@<TRIPOS>SUBSTRUCTURE
     1 MOL         1 TEMP              0 ****  ****    0 ROOT
